WIDTH=8;
DEPTH=256;

ADDRESS_RADIX=HEX;
DATA_RADIX=HEX;

CONTENT BEGIN
    00 : 4D;
    01 : 21;
    02 : 74;
    03 : 1A;
    04 : E2;
    05 : D6;
    06 : 91;
    07 : 12;
    08 : F3;
    09 : BA;
    0A : 6B;
    0B : 95;
    0C : D1;
    0D : E3;
    0E : 68;
    0F : 5A;
    10 : 9E;
    11 : 7A;
    12 : 60;
    13 : A7;
    14 : 87;
    15 : 01;
    16 : 54;
    17 : 64;
    18 : 20;
    19 : DD;
    1A : 84;
    1B : 9A;
    1C : A2;
    1D : A9;
    1E : B8;
    1F : A0;
    20 : 4B;
    21 : 86;
    22 : 30;
    23 : 1D;
    24 : A6;
    25 : 65;
    26 : E0;
    27 : 4A;
    28 : F7;
    29 : A6;
    2A : 54;
    2B : D6;
    2C : 43;
    [2D..FF] : 00;
END;
